@<TRIPOS>MOLECULE
00000001
   168   180     1     0     0
SMALL
NO_CHARGES
****
Generated from the CSD

@<TRIPOS>ATOM
     1 N1      13.3040  13.5150   6.8900   N.2       1 MOL1   0.0000
     2 C1      13.7310  15.1330   9.2210   C.2       1 MOL1   0.0000
     3 C2      14.4960  14.0270   8.8850   C.2       1 MOL1   0.0000
     4 C3      14.1730  13.2120   7.7150   C.2       1 MOL1   0.0000
     5 C4      13.1070  12.6480   5.7390   C.3       1 MOL1   0.0000
     6 C5      13.3770  13.4560   4.4790   C.3       1 MOL1   0.0000
     7 C6      13.1040  12.6160   3.2390   C.3       1 MOL1   0.0000
     8 H1      12.9950  15.3510   8.6950   H         1 MOL1   0.0000
     9 H2      14.6470  12.4220   7.5860   H         1 MOL1   0.0000
    10 H3      13.7240  11.8890   5.7860   H         1 MOL1   0.0000
    11 H4      14.3020  13.7520   4.4740   H         1 MOL1   0.0000
    12 H5      12.8090  14.2430   4.4690   H         1 MOL1   0.0000
    13 H6      13.2900  13.1340   2.4400   H         1 MOL1   0.0000
    14 H7      13.6850  11.8370   3.2340   H         1 MOL1   0.0000
    15 N1      13.5150   6.8900  13.3040   N.2       1 MOL1   0.0000
    16 C1      15.1330   9.2210  13.7310   C.2       1 MOL1   0.0000
    17 C2      14.0270   8.8850  14.4960   C.2       1 MOL1   0.0000
    18 C3      13.2120   7.7150  14.1730   C.2       1 MOL1   0.0000
    19 C4      12.6480   5.7390  13.1070   C.3       1 MOL1   0.0000
    20 C5      13.4560   4.4790  13.3770   C.3       1 MOL1   0.0000
    21 C6      12.6160   3.2390  13.1040   C.3       1 MOL1   0.0000
    22 H1      15.3510   8.6950  12.9950   H         1 MOL1   0.0000
    23 H2      12.4220   7.5860  14.6470   H         1 MOL1   0.0000
    24 H3      11.8890   5.7860  13.7240   H         1 MOL1   0.0000
    25 H4      13.7520   4.4740  14.3020   H         1 MOL1   0.0000
    26 H5      14.2430   4.4690  12.8090   H         1 MOL1   0.0000
    27 H6      13.1340   2.4400  13.2900   H         1 MOL1   0.0000
    28 H7      11.8370   3.2340  13.6850   H         1 MOL1   0.0000
    29 N1       6.8900  13.3040  13.5150   N.2       1 MOL1   0.0000
    30 C1       9.2210  13.7310  15.1330   C.2       1 MOL1   0.0000
    31 C2       8.8850  14.4960  14.0270   C.2       1 MOL1   0.0000
    32 C3       7.7150  14.1730  13.2120   C.2       1 MOL1   0.0000
    33 C4       5.7390  13.1070  12.6480   C.3       1 MOL1   0.0000
    34 C5       4.4790  13.3770  13.4560   C.3       1 MOL1   0.0000
    35 C6       3.2390  13.1040  12.6160   C.3       1 MOL1   0.0000
    36 H1       8.6950  12.9950  15.3510   H         1 MOL1   0.0000
    37 H2       7.5860  14.6470  12.4220   H         1 MOL1   0.0000
    38 H3       5.7860  13.7240  11.8890   H         1 MOL1   0.0000
    39 H4       4.4740  14.3020  13.7520   H         1 MOL1   0.0000
    40 H5       4.4690  12.8090  14.2430   H         1 MOL1   0.0000
    41 H6       2.4400  13.2900  13.1340   H         1 MOL1   0.0000
    42 H7       3.2340  13.6850  11.8370   H         1 MOL1   0.0000
    43 N1      11.4960  11.2850   6.8900   N.2       1 MOL1   0.0000
    44 C1      11.0690   9.6670   9.2210   C.2       1 MOL1   0.0000
    45 C2      10.3040  10.7730   8.8850   C.2       1 MOL1   0.0000
    46 C3      10.6270  11.5880   7.7150   C.2       1 MOL1   0.0000
    47 C4      11.6930  12.1520   5.7390   C.3       1 MOL1   0.0000
    48 C5      11.4230  11.3440   4.4790   C.3       1 MOL1   0.0000
    49 C6      11.6960  12.1840   3.2390   C.3       1 MOL1   0.0000
    50 H1      11.8050   9.4490   8.6950   H         1 MOL1   0.0000
    51 H2      10.1530  12.3780   7.5860   H         1 MOL1   0.0000
    52 H3      11.0760  12.9110   5.7860   H         1 MOL1   0.0000
    53 H4      10.4980  11.0480   4.4740   H         1 MOL1   0.0000
    54 H5      11.9910  10.5570   4.4690   H         1 MOL1   0.0000
    55 H6      11.5100  11.6660   2.4400   H         1 MOL1   0.0000
    56 H7      11.1150  12.9630   3.2340   H         1 MOL1   0.0000
    57 N1      11.2850  17.9100  13.3040   N.2       1 MOL1   0.0000
    58 C1       9.6670  15.5790  13.7310   C.2       1 MOL1   0.0000
    59 C2      10.7730  15.9150  14.4960   C.2       1 MOL1   0.0000
    60 C3      11.5880  17.0850  14.1730   C.2       1 MOL1   0.0000
    61 C4      12.1520  19.0610  13.1070   C.3       1 MOL1   0.0000
    62 C5      11.3440  20.3210  13.3770   C.3       1 MOL1   0.0000
    63 C6      12.1840  21.5610  13.1040   C.3       1 MOL1   0.0000
    64 H1       9.4490  16.1050  12.9950   H         1 MOL1   0.0000
    65 H2      12.3780  17.2140  14.6470   H         1 MOL1   0.0000
    66 H3      12.9110  19.0140  13.7240   H         1 MOL1   0.0000
    67 H4      11.0480  20.3260  14.3020   H         1 MOL1   0.0000
    68 H5      10.5570  20.3310  12.8090   H         1 MOL1   0.0000
    69 H6      11.6660  22.3600  13.2900   H         1 MOL1   0.0000
    70 H7      12.9630  21.5660  13.6850   H         1 MOL1   0.0000
    71 N1      17.9100  11.4960  13.5150   N.2       1 MOL1   0.0000
    72 C1      15.5790  11.0690  15.1330   C.2       1 MOL1   0.0000
    73 C2      15.9150  10.3040  14.0270   C.2       1 MOL1   0.0000
    74 C3      17.0850  10.6270  13.2120   C.2       1 MOL1   0.0000
    75 C4      19.0610  11.6930  12.6480   C.3       1 MOL1   0.0000
    76 C5      20.3210  11.4230  13.4560   C.3       1 MOL1   0.0000
    77 C6      21.5610  11.6960  12.6160   C.3       1 MOL1   0.0000
    78 H1      16.1050  11.8050  15.3510   H         1 MOL1   0.0000
    79 H2      17.2140  10.1530  12.4220   H         1 MOL1   0.0000
    80 H3      19.0140  11.0760  11.8890   H         1 MOL1   0.0000
    81 H4      20.3260  10.4980  13.7520   H         1 MOL1   0.0000
    82 H5      20.3310  11.9910  14.2430   H         1 MOL1   0.0000
    83 H6      22.3600  11.5100  13.1340   H         1 MOL1   0.0000
    84 H7      21.5660  11.1150  11.8370   H         1 MOL1   0.0000
    85 N1      13.3040  11.2850  17.9100   N.2       1 MOL1   0.0000
    86 C1      13.7310   9.6670  15.5790   C.2       1 MOL1   0.0000
    87 C2      14.4960  10.7730  15.9150   C.2       1 MOL1   0.0000
    88 C3      14.1730  11.5880  17.0850   C.2       1 MOL1   0.0000
    89 C4      13.1070  12.1520  19.0610   C.3       1 MOL1   0.0000
    90 C5      13.3770  11.3440  20.3210   C.3       1 MOL1   0.0000
    91 C6      13.1040  12.1840  21.5610   C.3       1 MOL1   0.0000
    92 H1      12.9950   9.4490  16.1050   H         1 MOL1   0.0000
    93 H2      14.6470  12.3780  17.2140   H         1 MOL1   0.0000
    94 H3      13.7240  12.9110  19.0140   H         1 MOL1   0.0000
    95 H4      14.3020  11.0480  20.3260   H         1 MOL1   0.0000
    96 H5      12.8090  10.5570  20.3310   H         1 MOL1   0.0000
    97 H6      13.2900  11.6660  22.3600   H         1 MOL1   0.0000
    98 H7      13.6850  12.9630  21.5660   H         1 MOL1   0.0000
    99 N1      13.5150  17.9100  11.4960   N.2       1 MOL1   0.0000
   100 C1      15.1330  15.5790  11.0690   C.2       1 MOL1   0.0000
   101 C2      14.0270  15.9150  10.3040   C.2       1 MOL1   0.0000
   102 C3      13.2120  17.0850  10.6270   C.2       1 MOL1   0.0000
   103 C4      12.6480  19.0610  11.6930   C.3       1 MOL1   0.0000
   104 C5      13.4560  20.3210  11.4230   C.3       1 MOL1   0.0000
   105 C6      12.6160  21.5610  11.6960   C.3       1 MOL1   0.0000
   106 H1      15.3510  16.1050  11.8050   H         1 MOL1   0.0000
   107 H2      12.4220  17.2140  10.1530   H         1 MOL1   0.0000
   108 H3      11.8890  19.0140  11.0760   H         1 MOL1   0.0000
   109 H4      13.7520  20.3260  10.4980   H         1 MOL1   0.0000
   110 H5      14.2430  20.3310  11.9910   H         1 MOL1   0.0000
   111 H6      13.1340  22.3600  11.5100   H         1 MOL1   0.0000
   112 H7      11.8370  21.5660  11.1150   H         1 MOL1   0.0000
   113 N1       6.8900  11.4960  11.2850   N.2       1 MOL1   0.0000
   114 C1       9.2210  11.0690   9.6670   C.2       1 MOL1   0.0000
   115 C2       8.8850  10.3040  10.7730   C.2       1 MOL1   0.0000
   116 C3       7.7150  10.6270  11.5880   C.2       1 MOL1   0.0000
   117 C4       5.7390  11.6930  12.1520   C.3       1 MOL1   0.0000
   118 C5       4.4790  11.4230  11.3440   C.3       1 MOL1   0.0000
   119 C6       3.2390  11.6960  12.1840   C.3       1 MOL1   0.0000
   120 H1       8.6950  11.8050   9.4490   H         1 MOL1   0.0000
   121 H2       7.5860  10.1530  12.3780   H         1 MOL1   0.0000
   122 H3       5.7860  11.0760  12.9110   H         1 MOL1   0.0000
   123 H4       4.4740  10.4980  11.0480   H         1 MOL1   0.0000
   124 H5       4.4690  11.9910  10.5570   H         1 MOL1   0.0000
   125 H6       2.4400  11.5100  11.6660   H         1 MOL1   0.0000
   126 H7       3.2340  11.1150  12.9630   H         1 MOL1   0.0000
   127 N1      11.4960  13.5150  17.9100   N.2       1 MOL1   0.0000
   128 C1      11.0690  15.1330  15.5790   C.2       1 MOL1   0.0000
   129 C2      10.3040  14.0270  15.9150   C.2       1 MOL1   0.0000
   130 C3      10.6270  13.2120  17.0850   C.2       1 MOL1   0.0000
   131 C4      11.6930  12.6480  19.0610   C.3       1 MOL1   0.0000
   132 C5      11.4230  13.4560  20.3210   C.3       1 MOL1   0.0000
   133 C6      11.6960  12.6160  21.5610   C.3       1 MOL1   0.0000
   134 H1      11.8050  15.3510  16.1050   H         1 MOL1   0.0000
   135 H2      10.1530  12.4220  17.2140   H         1 MOL1   0.0000
   136 H3      11.0760  11.8890  19.0140   H         1 MOL1   0.0000
   137 H4      10.4980  13.7520  20.3260   H         1 MOL1   0.0000
   138 H5      11.9910  14.2430  20.3310   H         1 MOL1   0.0000
   139 H6      11.5100  13.1340  22.3600   H         1 MOL1   0.0000
   140 H7      11.1150  11.8370  21.5660   H         1 MOL1   0.0000
   141 N1      11.2850   6.8900  11.4960   N.2       1 MOL1   0.0000
   142 C1       9.6670   9.2210  11.0690   C.2       1 MOL1   0.0000
   143 C2      10.7730   8.8850  10.3040   C.2       1 MOL1   0.0000
   144 C3      11.5880   7.7150  10.6270   C.2       1 MOL1   0.0000
   145 C4      12.1520   5.7390  11.6930   C.3       1 MOL1   0.0000
   146 C5      11.3440   4.4790  11.4230   C.3       1 MOL1   0.0000
   147 C6      12.1840   3.2390  11.6960   C.3       1 MOL1   0.0000
   148 H1       9.4490   8.6950  11.8050   H         1 MOL1   0.0000
   149 H2      12.3780   7.5860  10.1530   H         1 MOL1   0.0000
   150 H3      12.9110   5.7860  11.0760   H         1 MOL1   0.0000
   151 H4      11.0480   4.4740  10.4980   H         1 MOL1   0.0000
   152 H5      10.5570   4.4690  11.9910   H         1 MOL1   0.0000
   153 H6      11.6660   2.4400  11.5100   H         1 MOL1   0.0000
   154 H7      12.9630   3.2340  11.1150   H         1 MOL1   0.0000
   155 N1      17.9100  13.3040  11.2850   N.2       1 MOL1   0.0000
   156 C1      15.5790  13.7310   9.6670   C.2       1 MOL1   0.0000
   157 C2      15.9150  14.4960  10.7730   C.2       1 MOL1   0.0000
   158 C3      17.0850  14.1730  11.5880   C.2       1 MOL1   0.0000
   159 C4      19.0610  13.1070  12.1520   C.3       1 MOL1   0.0000
   160 C5      20.3210  13.3770  11.3440   C.3       1 MOL1   0.0000
   161 C6      21.5610  13.1040  12.1840   C.3       1 MOL1   0.0000
   162 H1      16.1050  12.9950   9.4490   H         1 MOL1   0.0000
   163 H2      17.2140  14.6470  12.3780   H         1 MOL1   0.0000
   164 H3      19.0140  13.7240  12.9110   H         1 MOL1   0.0000
   165 H4      20.3260  14.3020  11.0480   H         1 MOL1   0.0000
   166 H5      20.3310  12.8090  10.5570   H         1 MOL1   0.0000
   167 H6      22.3600  13.2900  11.6660   H         1 MOL1   0.0000
   168 H7      21.5660  13.6850  12.9630   H         1 MOL1   0.0000
@<TRIPOS>BOND
     1     2     3   un
     2     1     4   un
     3     3     4   un
     4     1     5    1
     5     5     6    1
     6     6     7    1
     7     2     8    1
     8     4     9    1
     9     5    10    1
    10     6    11    1
    11     6    12    1
    12     7    13    1
    13     7    14    1
    14    16    17   un
    15    15    18   un
    16    17    18   un
    17    15    19    1
    18    19    20    1
    19    20    21    1
    20    16    22    1
    21    18    23    1
    22    19    24    1
    23    20    25    1
    24    20    26    1
    25    21    27    1
    26    21    28    1
    27    30    31   un
    28    29    32   un
    29    31    32   un
    30    29    33    1
    31    33    34    1
    32    34    35    1
    33    30    36    1
    34    32    37    1
    35    33    38    1
    36    34    39    1
    37    34    40    1
    38    35    41    1
    39    35    42    1
    40    44    45   un
    41    43    46   un
    42    45    46   un
    43     5    47    1
    44    43    47    1
    45    47    48    1
    46     7    49    1
    47    48    49    1
    48    44    50    1
    49    46    51    1
    50    47    52    1
    51    48    53    1
    52    48    54    1
    53    49    55    1
    54    49    56    1
    55    31    58   un
    56    58    59   un
    57    57    60   un
    58    59    60   un
    59    57    61    1
    60    61    62    1
    61    62    63    1
    62    58    64    1
    63    60    65    1
    64    61    66    1
    65    62    67    1
    66    62    68    1
    67    63    69    1
    68    63    70    1
    69    16    73   un
    70    72    73   un
    71    71    74   un
    72    73    74   un
    73    71    75    1
    74    75    76    1
    75    76    77    1
    76    72    78    1
    77    74    79    1
    78    75    80    1
    79    76    81    1
    80    76    82    1
    81    77    83    1
    82    77    84    1
    83    17    86   un
    84    72    87   un
    85    86    87   un
    86    85    88   un
    87    87    88   un
    88    85    89    1
    89    89    90    1
    90    90    91    1
    91    86    92    1
    92    88    93    1
    93    89    94    1
    94    90    95    1
    95    90    96    1
    96    91    97    1
    97    91    98    1
    98     2   101   un
    99   100   101   un
   100    99   102   un
   101   101   102   un
   102    61   103    1
   103    99   103    1
   104   103   104    1
   105    63   105    1
   106   104   105    1
   107   100   106    1
   108   102   107    1
   109   103   108    1
   110   104   109    1
   111   104   110    1
   112   105   111    1
   113   105   112    1
   114    45   114   un
   115   114   115   un
   116   113   116   un
   117   115   116   un
   118    33   117    1
   119   113   117    1
   120   117   118    1
   121    35   119    1
   122   118   119    1
   123   114   120    1
   124   116   121    1
   125   117   122    1
   126   118   123    1
   127   118   124    1
   128   119   125    1
   129   119   126    1
   130    59   128   un
   131    30   129   un
   132   128   129   un
   133   127   130   un
   134   129   130   un
   135    89   131    1
   136   127   131    1
   137   131   132    1
   138    91   133    1
   139   132   133    1
   140   128   134    1
   141   130   135    1
   142   131   136    1
   143   132   137    1
   144   132   138    1
   145   133   139    1
   146   133   140    1
   147   115   142   un
   148    44   143   un
   149   142   143   un
   150   141   144   un
   151   143   144   un
   152    19   145    1
   153   141   145    1
   154   145   146    1
   155    21   147    1
   156   146   147    1
   157   142   148    1
   158   144   149    1
   159   145   150    1
   160   146   151    1
   161   146   152    1
   162   147   153    1
   163   147   154    1
   164     3   156   un
   165   100   157   un
   166   156   157   un
   167   155   158   un
   168   157   158   un
   169    75   159    1
   170   155   159    1
   171   159   160    1
   172    77   161    1
   173   160   161    1
   174   156   162    1
   175   158   163    1
   176   159   164    1
   177   160   165    1
   178   160   166    1
   179   161   167    1
   180   161   168    1
@<TRIPOS>SUBSTRUCTURE
     1 MOL1        1 GROUP             0 A     MOL     0  
